ejm_52
  PyMOL3.0          3D                             0

 39 41  0  0  0  0  0  0  0  0999 V2000
   -7.5085  -13.9930  -22.8599 H   0  0  0  0  0  0  0  0  0  0  0  0
   -8.1986  -13.9598  -22.1232 N   0  3  0  0  0  0  0  0  0  0  0  0
   -8.7447  -14.7721  -22.3724 H   0  0  0  0  0  0  0  0  0  0  0  0
   -9.0680   -4.5930  -15.4580 Cl  0  0  0  0  0  0  0  0  0  0  0  0
   -4.5710   -7.6890  -15.6880 Cl  0  0  0  0  0  0  0  0  0  0  0  0
   -5.2160   -3.7490  -16.0150 C   0  0  0  0  0  0  0  0  0  0  0  0
   -4.6130   -5.0040  -15.9460 C   0  0  0  0  0  0  0  0  0  0  0  0
   -5.3690   -6.1460  -15.6990 C   0  0  0  0  0  0  0  0  0  0  0  0
   -6.7570   -6.0210  -15.5070 C   0  0  0  0  0  0  0  0  0  0  0  0
   -7.3530   -4.7470  -15.5980 C   0  0  0  0  0  0  0  0  0  0  0  0
   -6.5840   -3.6180  -15.8360 C   0  0  0  0  0  0  0  0  0  0  0  0
   -7.6360   -7.1610  -15.1730 C   0  0  0  0  0  0  0  0  0  0  0  0
   -8.1280   -7.2080  -14.0420 O   0  0  0  0  0  0  0  0  0  0  0  0
   -7.9030   -8.0700  -16.1270 N   0  0  0  0  0  0  0  0  0  0  0  0
   -8.7490   -9.1780  -16.0390 C   0  0  0  0  0  0  0  0  0  0  0  0
   -9.5620   -9.5060  -14.9340 C   0  0  0  0  0  0  0  0  0  0  0  0
  -10.4340  -10.5880  -15.0440 C   0  0  0  0  0  0  0  0  0  0  0  0
  -10.4700  -11.3160  -16.1600 N   0  0  0  0  0  0  0  0  0  0  0  0
   -9.7140  -11.0540  -17.2280 C   0  0  0  0  0  0  0  0  0  0  0  0
   -8.8520   -9.9560  -17.1920 C   0  0  0  0  0  0  0  0  0  0  0  0
   -9.7370  -11.9520  -18.3270 N   0  0  0  0  0  0  0  0  0  0  0  0
   -8.9120  -12.0110  -19.4130 C   0  0  0  0  0  0  0  0  0  0  0  0
   -8.0110  -11.2010  -19.6380 O   0  0  0  0  0  0  0  0  0  0  0  0
   -9.0910  -13.1660  -20.4350 C   0  0  0  0  0  0  0  0  0  0  0  0
   -7.7680  -13.9390  -20.7160 C   0  0  0  0  0  0  0  0  0  0  0  0
   -8.9990  -12.7410  -21.9230 C   0  0  0  0  0  0  0  0  0  0  0  0
   -4.6025   -2.8576  -16.2126 H   0  0  0  0  0  0  0  0  0  0  0  0
   -3.5259   -5.0927  -16.0886 H   0  0  0  0  0  0  0  0  0  0  0  0
   -7.0563   -2.6256  -15.8824 H   0  0  0  0  0  0  0  0  0  0  0  0
   -7.4271   -7.9331  -17.0302 H   0  0  0  0  0  0  0  0  0  0  0  0
   -9.5090   -8.9200  -14.0046 H   0  0  0  0  0  0  0  0  0  0  0  0
  -11.0970  -10.8428  -14.2040 H   0  0  0  0  0  0  0  0  0  0  0  0
   -8.2509   -9.7033  -18.0779 H   0  0  0  0  0  0  0  0  0  0  0  0
  -10.4836  -12.6611  -18.3014 H   0  0  0  0  0  0  0  0  0  0  0  0
   -9.9948  -13.6266  -20.0096 H   0  0  0  0  0  0  0  0  0  0  0  0
   -6.8519  -13.3601  -20.5274 H   0  0  0  0  0  0  0  0  0  0  0  0
   -7.5009  -14.8443  -20.1511 H   0  0  0  0  0  0  0  0  0  0  0  0
   -8.4518  -11.8026  -22.0964 H   0  0  0  0  0  0  0  0  0  0  0  0
   -9.9005  -12.5093  -22.5092 H   0  0  0  0  0  0  0  0  0  0  0  0
  1  2  1  0  0  0  0
  2  3  1  0  0  0  0
  2 26  1  0  0  0  0
  4 10  1  0  0  0  0
  5  8  1  0  0  0  0
  6  7  2  0  0  0  0
  6 11  1  0  0  0  0
  6 27  1  0  0  0  0
  7  8  1  0  0  0  0
  7 28  1  0  0  0  0
  8  9  2  0  0  0  0
  9 10  1  0  0  0  0
  9 12  1  0  0  0  0
 10 11  2  0  0  0  0
 11 29  1  0  0  0  0
 12 13  2  0  0  0  0
 12 14  1  0  0  0  0
 14 15  1  0  0  0  0
 14 30  1  0  0  0  0
 15 16  2  0  0  0  0
 15 20  1  0  0  0  0
 16 17  1  0  0  0  0
 16 31  1  0  0  0  0
 17 18  2  0  0  0  0
 17 32  1  0  0  0  0
 18 19  1  0  0  0  0
 19 20  2  0  0  0  0
 19 21  1  0  0  0  0
 20 33  1  0  0  0  0
 21 22  1  0  0  0  0
 21 34  1  0  0  0  0
 22 23  2  0  0  0  0
 22 24  1  0  0  0  0
 24 25  1  0  0  0  0
 24 26  1  0  0  0  0
 24 35  1  0  0  0  0
  2 25  1  0  0  0  0
 25 36  1  0  0  0  0
 25 37  1  0  0  0  0
 26 38  1  0  0  0  0
 26 39  1  0  0  0  0
M  END
>  <affinity.expt>
3.5

$$$$
