jmc_32
  PyMOL3.0          3D                             0

 39 41  0  0  1  0  0  0  0  0999 V2000
   -6.4306  -16.1420  -20.4519 H   0  0  0  0  0  0  0  0  0  0  0  0
   -8.1280   -7.2080  -14.0420 O   0  0  0  0  0  0  0  0  0  0  0  0
   -7.6360   -7.1610  -15.1730 C   0  0  0  0  0  0  0  0  0  0  0  0
   -7.9030   -8.0700  -16.1270 N   0  0  0  0  0  0  0  0  0  0  0  0
   -8.7490   -9.1780  -16.0390 C   0  0  0  0  0  0  0  0  0  0  0  0
   -9.5620   -9.5060  -14.9340 C   0  0  0  0  0  0  0  0  0  0  0  0
  -10.4340  -10.5880  -15.0440 C   0  0  0  0  0  0  0  0  0  0  0  0
  -10.4700  -11.3160  -16.1600 N   0  0  0  0  0  0  0  0  0  0  0  0
   -9.7140  -11.0540  -17.2280 C   0  0  0  0  0  0  0  0  0  0  0  0
   -9.8170  -11.9110  -18.3310 N   0  0  0  0  0  0  0  0  0  0  0  0
   -8.9510  -12.0680  -19.3560 C   0  0  0  0  0  0  0  0  0  0  0  0
   -7.8730  -11.4800  -19.4480 O   0  0  0  0  0  0  0  0  0  0  0  0
   -9.4040  -13.0060  -20.4860 C   0  0  1  0  0  0  0  0  0  0  0  0
   -8.9050  -12.6590  -21.8930 C   0  0  0  0  0  0  0  0  0  0  0  0
   -8.3700  -13.8720  -21.1960 C   0  0  1  0  0  0  0  0  0  0  0  0
   -6.9151  -14.4174  -20.7923 C   0  0  0  0  0  0  0  0  0  0  0  0
   -5.9298  -14.2363  -21.5489 O   0  0  0  0  0  0  0  0  0  0  0  0
   -6.8329  -15.3967  -19.9998 O   0  0  0  0  0  0  0  0  0  0  0  0
   -8.8520   -9.9560  -17.1920 C   0  0  0  0  0  0  0  0  0  0  0  0
   -6.7570   -6.0210  -15.5070 C   0  0  0  0  0  0  0  0  0  0  0  0
   -5.3690   -6.1460  -15.6990 C   0  0  0  0  0  0  0  0  0  0  0  0
   -4.5710   -7.6890  -15.6880 Cl  0  0  0  0  0  0  0  0  0  0  0  0
   -4.6130   -5.0040  -15.9460 C   0  0  0  0  0  0  0  0  0  0  0  0
   -5.2160   -3.7490  -16.0150 C   0  0  0  0  0  0  0  0  0  0  0  0
   -6.5840   -3.6180  -15.8360 C   0  0  0  0  0  0  0  0  0  0  0  0
   -7.3530   -4.7470  -15.5980 C   0  0  0  0  0  0  0  0  0  0  0  0
   -9.0680   -4.5930  -15.4580 Cl  0  0  0  0  0  0  0  0  0  0  0  0
   -7.4271   -7.9331  -17.0302 H   0  0  0  0  0  0  0  0  0  0  0  0
   -9.5090   -8.9200  -14.0046 H   0  0  0  0  0  0  0  0  0  0  0  0
  -11.0970  -10.8428  -14.2040 H   0  0  0  0  0  0  0  0  0  0  0  0
  -10.6628  -12.4978  -18.3651 H   0  0  0  0  0  0  0  0  0  0  0  0
  -10.3717  -13.2061  -20.0027 H   0  0  0  0  0  0  0  0  0  0  0  0
   -9.5759  -12.7736  -22.7572 H   0  0  0  0  0  0  0  0  0  0  0  0
   -8.4543  -11.7702  -22.3588 H   0  0  0  0  0  0  0  0  0  0  0  0
   -8.3101  -14.9480  -21.4166 H   0  0  0  0  0  0  0  0  0  0  0  0
   -8.2509   -9.7033  -18.0779 H   0  0  0  0  0  0  0  0  0  0  0  0
   -3.5259   -5.0927  -16.0886 H   0  0  0  0  0  0  0  0  0  0  0  0
   -4.6025   -2.8576  -16.2126 H   0  0  0  0  0  0  0  0  0  0  0  0
   -7.0563   -2.6256  -15.8824 H   0  0  0  0  0  0  0  0  0  0  0  0
  2  3  2  0  0  0  0
  3  4  1  0  0  0  0
  3 20  1  0  0  0  0
  4  5  1  0  0  0  0
  4 28  1  0  0  0  0
  5  6  2  0  0  0  0
  6  7  1  0  0  0  0
  6 29  1  0  0  0  0
  7  8  2  0  0  0  0
  7 30  1  0  0  0  0
  8  9  1  0  0  0  0
  9 10  1  0  0  0  0
  9 19  2  0  0  0  0
 10 11  1  0  0  0  0
 10 31  1  0  0  0  0
 11 12  2  0  0  0  0
 11 13  1  0  0  0  0
 13 14  1  0  0  0  0
 13 32  1  0  0  0  0
 14 15  1  0  0  0  0
 14 33  1  0  0  0  0
 14 34  1  0  0  0  0
 13 15  1  0  0  0  0
 15 16  1  0  0  0  0
 15 35  1  0  0  0  0
 16 17  2  0  0  0  0
 16 18  1  0  0  0  0
  1 18  1  0  0  0  0
  5 19  1  0  0  0  0
 19 36  1  0  0  0  0
 20 21  2  0  0  0  0
 21 22  1  0  0  0  0
 21 23  1  0  0  0  0
 23 24  2  0  0  0  0
 23 37  1  0  0  0  0
 24 25  1  0  0  0  0
 24 38  1  0  0  0  0
 25 26  2  0  0  0  0
 25 39  1  0  0  0  0
 20 26  1  0  0  0  0
 26 27  1  0  0  0  0
M  END
>  <affinity.expt>
0.003200

>  <ofe-name>


>  <rmsd>
1.150275

>  <energy>
9182.900986

$$$$
