jmc_31
  PyMOL3.0          3D                             0

 40 42  0  0  1  0  0  0  0  0999 V2000
   -6.8194  -15.5577  -19.8695 N   0  0  0  0  0  0  0  0  0  0  0  0
   -7.6358  -15.8655  -19.3608 H   0  0  0  0  0  0  0  0  0  0  0  0
   -5.9372  -16.0333  -19.7443 H   0  0  0  0  0  0  0  0  0  0  0  0
   -8.1280   -7.2080  -14.0420 O   0  0  0  0  0  0  0  0  0  0  0  0
   -7.6360   -7.1610  -15.1730 C   0  0  0  0  0  0  0  0  0  0  0  0
   -7.9030   -8.0700  -16.1270 N   0  0  0  0  0  0  0  0  0  0  0  0
   -8.7490   -9.1780  -16.0390 C   0  0  0  0  0  0  0  0  0  0  0  0
   -9.5620   -9.5060  -14.9340 C   0  0  0  0  0  0  0  0  0  0  0  0
  -10.4340  -10.5880  -15.0440 C   0  0  0  0  0  0  0  0  0  0  0  0
  -10.4700  -11.3160  -16.1600 N   0  0  0  0  0  0  0  0  0  0  0  0
   -9.7140  -11.0540  -17.2280 C   0  0  0  0  0  0  0  0  0  0  0  0
   -9.8170  -11.9110  -18.3310 N   0  0  0  0  0  0  0  0  0  0  0  0
   -8.9510  -12.0680  -19.3560 C   0  0  0  0  0  0  0  0  0  0  0  0
   -7.8730  -11.4800  -19.4480 O   0  0  0  0  0  0  0  0  0  0  0  0
   -9.4040  -13.0060  -20.4860 C   0  0  1  0  0  0  0  0  0  0  0  0
   -8.9050  -12.6590  -21.8930 C   0  0  0  0  0  0  0  0  0  0  0  0
   -8.3700  -13.8720  -21.1960 C   0  0  1  0  0  0  0  0  0  0  0  0
   -6.9151  -14.4174  -20.7923 C   0  0  0  0  0  0  0  0  0  0  0  0
   -5.9298  -14.2363  -21.5489 O   0  0  0  0  0  0  0  0  0  0  0  0
   -8.8520   -9.9560  -17.1920 C   0  0  0  0  0  0  0  0  0  0  0  0
   -6.7570   -6.0210  -15.5070 C   0  0  0  0  0  0  0  0  0  0  0  0
   -5.3690   -6.1460  -15.6990 C   0  0  0  0  0  0  0  0  0  0  0  0
   -4.5710   -7.6890  -15.6880 Cl  0  0  0  0  0  0  0  0  0  0  0  0
   -4.6130   -5.0040  -15.9460 C   0  0  0  0  0  0  0  0  0  0  0  0
   -5.2160   -3.7490  -16.0150 C   0  0  0  0  0  0  0  0  0  0  0  0
   -6.5840   -3.6180  -15.8360 C   0  0  0  0  0  0  0  0  0  0  0  0
   -7.3530   -4.7470  -15.5980 C   0  0  0  0  0  0  0  0  0  0  0  0
   -9.0680   -4.5930  -15.4580 Cl  0  0  0  0  0  0  0  0  0  0  0  0
   -7.4271   -7.9331  -17.0302 H   0  0  0  0  0  0  0  0  0  0  0  0
   -9.5090   -8.9200  -14.0046 H   0  0  0  0  0  0  0  0  0  0  0  0
  -11.0970  -10.8428  -14.2040 H   0  0  0  0  0  0  0  0  0  0  0  0
  -10.6628  -12.4978  -18.3651 H   0  0  0  0  0  0  0  0  0  0  0  0
  -10.3717  -13.2061  -20.0027 H   0  0  0  0  0  0  0  0  0  0  0  0
   -9.5759  -12.7736  -22.7572 H   0  0  0  0  0  0  0  0  0  0  0  0
   -8.4543  -11.7702  -22.3588 H   0  0  0  0  0  0  0  0  0  0  0  0
   -8.3101  -14.9480  -21.4166 H   0  0  0  0  0  0  0  0  0  0  0  0
   -8.2509   -9.7033  -18.0779 H   0  0  0  0  0  0  0  0  0  0  0  0
   -3.5259   -5.0927  -16.0886 H   0  0  0  0  0  0  0  0  0  0  0  0
   -4.6025   -2.8576  -16.2126 H   0  0  0  0  0  0  0  0  0  0  0  0
   -7.0563   -2.6256  -15.8824 H   0  0  0  0  0  0  0  0  0  0  0  0
  1  2  1  0  0  0  0
  1  3  1  0  0  0  0
  4  5  2  0  0  0  0
  5  6  1  0  0  0  0
  5 21  1  0  0  0  0
  6  7  1  0  0  0  0
  6 29  1  0  0  0  0
  7  8  2  0  0  0  0
  8  9  1  0  0  0  0
  8 30  1  0  0  0  0
  9 10  2  0  0  0  0
  9 31  1  0  0  0  0
 10 11  1  0  0  0  0
 11 12  1  0  0  0  0
 11 20  2  0  0  0  0
 12 13  1  0  0  0  0
 12 32  1  0  0  0  0
 13 14  2  0  0  0  0
 13 15  1  0  0  0  0
 15 16  1  0  0  0  0
 15 33  1  0  0  0  0
 16 17  1  0  0  0  0
 16 34  1  0  0  0  0
 16 35  1  0  0  0  0
 15 17  1  0  0  0  0
 17 18  1  0  0  0  0
 17 36  1  0  0  0  0
  1 18  1  0  0  0  0
 18 19  2  0  0  0  0
  7 20  1  0  0  0  0
 20 37  1  0  0  0  0
 21 22  2  0  0  0  0
 22 23  1  0  0  0  0
 22 24  1  0  0  0  0
 24 25  2  0  0  0  0
 24 38  1  0  0  0  0
 25 26  1  0  0  0  0
 25 39  1  0  0  0  0
 26 27  2  0  0  0  0
 26 40  1  0  0  0  0
 21 27  1  0  0  0  0
 27 28  1  0  0  0  0
M  END
>  <affinity.expt>
0.011

>  <ofe-name>


>  <rmsd>
1.150275

>  <energy>
9182.900986

$$$$
